/batch
/config,noeldb,1     ! force off writing results to database
*get,_wallstrt,active,,time,wall
! ANSYS input file written by Workbench version 2024 R1
! File used for geometry attach: C:\Users\Administrator\Desktop\Thesis\self\design_files\dp0\SYS\DM\SYS.scdoc
/title,design--Static Structural (A5)
! ****** Begin Custom Load Command Snippet ******
/COM, ACT Extensions:
/COM,     LSDYNA, 2024.1
/COM,     5f463412-bd3e-484b-87e7-cbc0a665e474, wbex
/COM,/COM,     ANSYSMotion, 2024.1
/COM,     20180725-3f81-49eb-9f31-41364844c769, wbex
/COM,
! ****** End   Custom Load Command Snippet ******
*DIM,_wb_ProjectScratch_dir,string,248
_wb_ProjectScratch_dir(1) = 'C:\Users\Administrator\Desktop\Thesis\self\_ProjectScratch\Scr8F7F\'
*DIM,_wb_SolverFiles_dir,string,248
_wb_SolverFiles_dir(1) = 'C:\Users\Administrator\Desktop\Thesis\self\design_files\dp0\SYS\MECH\'
*DIM,_wb_userfiles_dir,string,248
_wb_userfiles_dir(1) = 'C:\Users\Administrator\Desktop\Thesis\self\design_files\user_files\'
/com,--- Data in consistent NMM units. See Solving Units in the help system for more information.
/units,MPA
/nopr
/wb,file,start              !  signify a WB generated input file
/prep7
! Turn off shape checking because checks already performed inside WB mesher.
! See help system for more information.
SHPP,OFF,,NOWARN
/nolist
etcon,set             ! allow ANSYS to choose best KEYOP's for 180x elements, resets any applicable keyopt to MAPDL defaults
/com,*********** Nodes for the whole assembly ***********
nblock,3,,11591
(1i9,3e20.9e3)
        1    -3.000000000E+00    -1.100000000E+01     1.000000000E+01
        2    -3.000000000E+00     1.100000000E+01     1.000000000E+01
        3    -3.000000000E+00    -7.333333333E+00     1.000000000E+01
        4    -3.000000000E+00    -3.666666667E+00     1.000000000E+01
        5    -3.000000000E+00    -8.673617380E-16     1.000000000E+01
        6    -3.000000000E+00     3.666666667E+00     1.000000000E+01
        7    -3.000000000E+00     7.333333333E+00     1.000000000E+01
        8     3.000000000E+00     1.100000000E+01     1.000000000E+01
        9     0.000000000E+00     1.100000000E+01     1.000000000E+01
       10     3.000000000E+00    -1.100000000E+01     1.000000000E+01
       11     3.000000000E+00     7.333333333E+00     1.000000000E+01
       12     3.000000000E+00     3.666666667E+00     1.000000000E+01
       13     3.000000000E+00     8.673617380E-16     1.000000000E+01
       14     3.000000000E+00    -3.666666667E+00     1.000000000E+01
       15     3.000000000E+00    -7.333333333E+00     1.000000000E+01
       16     0.000000000E+00    -1.100000000E+01     1.000000000E+01
       17     9.000000000E+00    -9.000000000E+00     1.000000000E+01
       18     9.500000000E+00    -9.500000000E+00     1.000000000E+01
       19     9.146446609E+00    -9.353553391E+00     1.000000000E+01
       20     9.000000000E+00     9.000000000E+00     1.000000000E+01
! ... 10519 like lines cut
/wb,elem,start            !  set before creation of elements
/com,*********** Elements for Body 1 "SYS\Solid" ***********
et,1,187
eblock,19,solid,,4934
(19i9)
        1        1        1        1        0        0        0        0       10        0        1     1326     1327     1905     1870     8903     8911     8908     8907
     8910    10527
        1        1        1        1        0        0        0        0       10        0        2     1326     1327     1398     1905     8903     8909     8904     8908
     8911     9197
        1        1        1        1        0        0        0        0       10        0        3      254     1905     1327     1870     3355     8911     3352     3354
    10527     8910
        1        1        1        1        0        0        0        0       10        0        4      254     1905      258     1327     3355     3381     3349     3352
     8911     3379
        1        1        1        1        0        0        0        0       10        0        5     1326     1905     1827     1870     8908    10454     8906     8907
    10527    10450
        1        1        1        1        0        0        0        0       10        0        6     1326     1905     1398     1827     8908     9197     8904     8906
    10454     9196
        1        1        1        1        0        0        0        0       10        0        7      258     1327     1905     1398     3379     8911     3381     3380
     8909     9197
        1        1        1        1        0        0        0        0       10        0        8       33     1031      258     1905     2129     3377     2126     2131
     7711     3381
        1        1        1        1        0        0        0        0       10        0        9     1028     1463     1905     1827     7690     9387     7696     7693
     9386    10454
        1        1        1        1        0        0        0        0       10        0       10     1028     1463     1029     1905     7690     7697     7689     7696
     9387     7699
! ... 9849 like lines cut
!Material Id = {CC69CA13-8414-4764-8313-40191247FA0A}
/wb,elem,end               !  done creating elements
/com,*********** Send User Defined Coordinate System(s) ***********
csys,0
toffst,273.15,  ! Temperature offset from absolute zero
/com,*********** Set Reference Temperature ***********
tref,22.
/wb,mat,start              !  starting to send materials
/com,*********** Send Materials ***********
MP,DENS,1,1.24e-09,	! tonne mm^-3
MP,EX,1,2636,	! tonne s^-2 mm^-1
MP,NUXY,1,0.33,
MP,UVID,1,388ae073-af24-4023-b754-590e123e42f4

/wb,mat,end                !  done sending materials
!************************* Model Summary ********************
!SYS\Solid,	PLA,	matid,	1
!************************* End Model Summary ********************
! get the diagonal of the bounding box. Needed later for other things
*get,_xmin,node,,mnloc,x
*get,_ymin,node,,mnloc,y
*get,_zmin,node,,mnloc,z
*get,_xmax,node,,mxloc,x
*get,_ymax,node,,mxloc,y
*get,_zmax,node,,mxloc,z
_ASMDIAG=(_xmax-_xmin)*(_xmax-_xmin)+(_ymax-_ymin)*(_ymax-_ymin)+(_zmax-_zmin)*(_zmax-_zmin)
_ASMDIAG=SQRT(_ASMDIAG)
/wb,contact,start          !  starting to send contact
/wb,contact,end            !  done creating contacts
/com,*********** Send Named Selection as Node Component ***********
CMBLOCK,GROUP1  ,NODE,      133
(8i10)
       150       152       153       154       155       156       373       378
       379       380       381       382       389       390       392       393
       395       396       397       426       427       428       930       931
       932       933       995       996       997       998       999      1040
      1041      1042      1043      1044      1489      1490      1491      1492
      1493      1494      1495      2791      2792      2804      2805      2808
      2810      2813      2815      2819      2820      2821      2825      2829
      2830      2835      2838      4124      4125      4136      4138      4139
      4141      4142      4144      4145      4146      4150      4151      4152
      4155      4156      4173      4174      4175      4176      4177      4180
      4187      4188      4189      4190      4191      4192      4195      4198
      4201      4202      4207      4208      4214      4215      4217      4218
      4445      4447      4448      4450      4456      4457      4461      7273
      7275      7276      7279      7280      7282      7284      7286      7288
      7289      7475      7478      7489      7494      7497      7766      7769
      7782      7783      7788      7791      9470      9471      9472      9477
      9478      9479      9485      9486      9496
/golist
/wb,load,start             !  starting to send loads
/com,*********** Fixed Supports ***********
CMBLOCK,_FIXEDSU,NODE,      492
(8i10)
       271       272       273       274       275       276       277       278
       279       280       281       282       283       284       285       286
       287       288       289       290       291       292       293       294
       295       296       297       298       299       300       301       302
       303       304       305       306       307       308       309       310
       311       312       313       314       315       316       317       318
       319       320       321       322       323       324       325       326
       327       328       657       658       659       660       661       662
       663       664       665       666       667       668       669       670
       671       672       673       674       675       676       677       678
       679       680       681       682       683       684       685       686
       687       688       689       690       691       692       693       694
       695       696       697       698       699       700       701       702
       703       704       705       706       707       708       709       710
       711       712       713       714       831       832       833       834
       843       844       845       846      1516      1517      1518      1519
      1520      1521      1544      1545      1546      1547      1548      1549
      1550      1551      1552      1553      1554      1555      1556      1557
      1583      1584      1585      1586      1587      1588      1589      1590
      3452      3453      3454      3455      3456      3457      3458      3461
! ... 42 like lines cut
cmsel,s,_FIXEDSU
d,all,all
nsel,all
/gst,on,on
fini
*get,_numnode,node,0,count
*get,_numelem,elem,0,count
*get, _MAXELEMNUM, elem, 0, NUM, MAX
*get, _MAXNODENUM, node, 0, NUM, MAX
*get, _MAXELEMTYPE, etyp, 0, NUM, MAX
*get, _MAXREALCONST, rcon, 0, NUM, MAX
/go
/wb,load,end               !  done creating loads
/com,--- Number of total nodes = %_numnode%
/com,--- Number of contact elements = 0
/com,--- Number of spring elements = 0
/com,--- Number of bearing elements = 0
/com,--- Number of solid elements = 4934
/com,--- Number of condensed parts = 0
/com,--- Number of total elements = %_numelem%
*get,_wallbsol,active,,time,wall
/com,****************************************************************************
/com,*************************    SOLUTION       ********************************
/com,****************************************************************************
/solu
antype,0                   ! static analysis
_thickRatio=  0     ! Ratio of thick parts in the model
eqsl,sparse,,,,,1
cntr,print,1               ! print out contact info and also make no initial contact an error
cncheck,dmp		!	Enable program controlled contact splitting for distributed memory parallel run
dmpoption,emat,no             ! Don't combine emat file for DANSYS
dmpoption,esav,no             ! Don't combine esav file for DANSYS
nldiag,cont,iter           ! print out contact info each equilibrium iteration
rescontrol,,none                 ! Do not keep any restart files
/com,****************************************************
/com,******************* SOLVE FOR LS 1 OF 1 ****************
acel,0.,-98000.,0.
/nopr
/gopr
nsub,1,1,1
time,1.
outres,erase
outres,all,none
outres,nsol,all,
outres,rsol,all
outres,eangl,all
outres,etmp,all
outres,veng,all
outres,strs,all,
outres,epel,all,
outres,eppl,all,
outres,cont,all,
! *********** WB SOLVE COMMAND ***********
! check interactive state
*get,ANSINTER_,active,,int
*if,ANSINTER_,ne,0,then
/eof
*endif
solve
/com *************** Write FE CONNECTORS ********* 
CEWRITE,file,ce,,INTE
/com,****************************************************
/com,*************** FINISHED SOLVE FOR LS 1 *************
*get,_wallasol,active,,time,wall
/nopr
*get,_numnode,node,0,count
*get,_numelem,elem,0,count
*get, _MAXELEMNUM, elem, 0, NUM, MAX
*get, _MAXNODENUM, node, 0, NUM, MAX,,,INTERNAL
*get, _MAXELEMTYPE, etyp, 0, NUM, MAX
*get, _MAXREALCONST, rcon, 0, NUM, MAX
*get,_NSOLTHREADS,active,0,ntfs
*get,_NSOLPROCESSES,active,0,npfs
/gopr
/post1
xmlo,ENCODING,ISO-8859-1
xmlo,parm
/xml,parm,xml
fini
/gopr
*get,_walldone,active,,time,wall
_preptime=(_wallbsol-_wallstrt)*3600
_solvtime=(_wallasol-_wallbsol)*3600
_posttime=(_walldone-_wallasol)*3600
_totaltim=(_walldone-_wallstrt)*3600
*get,_dlbratio,active,0,solu,dlbr
*get,_combtime,active,0,solu,comb
*get,_ssmode,active,0,solu,ssmm
*get,_ndofs,active,0,solu,ndof
*get,_sol_end_time,active,0,set,time
*if,_sol_end_time,eq,1.000000,then
/fclean				!clean distributed files
*endif
/com,--- Total number of nodes = %_numnode%
/com,--- Total number of elements = %_numelem%
/com,--- Element load balance ratio = %_dlbratio%
/com,--- Time to combine distributed files = %_combtime%
/com,--- Sparse memory mode = %_ssmode%
/com,--- Number of DOF = %_ndofs%
/wb,file,end               ! done with WB generated input
