/batch
/config,noeldb,1     ! force off writing results to database
*get,_wallstrt,active,,time,wall
! ANSYS input file written by Workbench version 2024 R1
! File used for geometry attach: C:\Users\Administrator\Desktop\Thesis\root\ansys_files\design_files\dp0\SYS\DM\SYS.scdoc
/title,design--Static Structural (A5)
! ****** Begin Custom Load Command Snippet ******
/COM, ACT Extensions:
/COM,     LSDYNA, 2024.1
/COM,     5f463412-bd3e-484b-87e7-cbc0a665e474, wbex
/COM,/COM,     ANSYSMotion, 2024.1
/COM,     20180725-3f81-49eb-9f31-41364844c769, wbex
/COM,
! ****** End   Custom Load Command Snippet ******
*DIM,_wb_ProjectScratch_dir,string,248
_wb_ProjectScratch_dir(1) = 'C:\Users\Administrator\Desktop\Thesis\root\ansys_files\_ProjectScratch\Scr2365\'
*DIM,_wb_SolverFiles_dir,string,248
_wb_SolverFiles_dir(1) = 'C:\Users\Administrator\Desktop\Thesis\root\ansys_files\design_files\dp0\SYS\MECH\'
*DIM,_wb_userfiles_dir,string,248
_wb_userfiles_dir(1) = 'C:\Users\Administrator\Desktop\Thesis\root\ansys_files\design_files\user_files\'
/com,--- Data in consistent NMM units. See Solving Units in the help system for more information.
/units,MPA
/nopr
/wb,file,start              !  signify a WB generated input file
/prep7
! Turn off shape checking because checks already performed inside WB mesher.
! See help system for more information.
SHPP,OFF,,NOWARN
/nolist
etcon,set             ! allow ANSYS to choose best KEYOP's for 180x elements, resets any applicable keyopt to MAPDL defaults
/com,*********** Nodes for the whole assembly ***********
nblock,3,,15143
(1i9,3e20.9e3)
        1    -1.600000000E+01    -8.800000000E+00     0.000000000E+00
        2    -1.660000000E+01    -9.400000000E+00     0.000000000E+00
        3    -1.617573593E+01    -9.224264069E+00     0.000000000E+00
        4    -1.660000000E+01    -9.400000000E+00     1.625000000E+01
        5    -1.660000000E+01    -9.400000000E+00     3.250000000E+00
        6    -1.660000000E+01    -9.400000000E+00     6.500000000E+00
        7    -1.660000000E+01    -9.400000000E+00     9.750000000E+00
        8    -1.660000000E+01    -9.400000000E+00     1.300000000E+01
        9    -1.600000000E+01    -8.800000000E+00     1.625000000E+01
       10    -1.617573593E+01    -9.224264069E+00     1.625000000E+01
       11    -1.600000000E+01    -8.800000000E+00     1.300000000E+01
       12    -1.600000000E+01    -8.800000000E+00     9.750000000E+00
       13    -1.600000000E+01    -8.800000000E+00     6.500000000E+00
       14    -1.600000000E+01    -8.800000000E+00     3.250000000E+00
       15    -1.660000000E+01     9.400000000E+00     0.000000000E+00
       16    -1.600000000E+01     8.800000000E+00     0.000000000E+00
       17    -1.617573593E+01     9.224264069E+00     0.000000000E+00
       18    -1.600000000E+01     8.800000000E+00     1.625000000E+01
       19    -1.600000000E+01     8.800000000E+00     3.250000000E+00
       20    -1.600000000E+01     8.800000000E+00     6.500000000E+00
! ... 13748 like lines cut
/wb,elem,start            !  set before creation of elements
/com,*********** Elements for Body 1 "SYS\Solid" ***********
et,1,187
eblock,19,solid,,6967
(19i9)
        1        1        1        1        0        0        0        0       10        0        1       60      107     2354      108     2792     3126     2796     2793
     3121     3131
        1        1        1        1        0        0        0        0       10        0        2       60      107     1004     2354     2792     3122     2794     2796
     3126     8730
        1        1        1        1        0        0        0        0       10        0        3      107     1048     2354      108     3123     9008     3126     3121
     3128     3131
        1        1        1        1        0        0        0        0       10        0        4      107     1004     2354     1048     3122     8730     3126     3123
     8726     9008
        1        1        1        1        0        0        0        0       10        0        5       60     2354       66      108     2796     2855     2791     2793
     3131     2849
        1        1        1        1        0        0        0        0       10        0        6       60     1004       66     2354     2794     2850     2791     2796
     8730     2855
        1        1        1        1        0        0        0        0       10        0        7     1640     1656     2354     2135    11423    11480    11429    11426
    11479    13470
        1        1        1        1        0        0        0        0       10        0        8     1045     2354     1046     2278     8996     9001     8992     8995
    13743     9000
        1        1        1        1        0        0        0        0       10        0        9     1045     1046     2354     1640     8992     9001     8996     8993
     8998    11429
        1        1        1        1        0        0        0        0       10        0       10     1640     2135     2354     2136    11426    13470    11429    11427
    13469    13474
! ... 13915 like lines cut
!Material Id = {CC69CA13-8414-4764-8313-40191247FA0A}
/wb,elem,end               !  done creating elements
/com,*********** Send User Defined Coordinate System(s) ***********
csys,0
toffst,273.15,  ! Temperature offset from absolute zero
/com,*********** Set Reference Temperature ***********
tref,22.
/wb,mat,start              !  starting to send materials
/com,*********** Send Materials ***********
MP,DENS,1,1.24e-09,	! tonne mm^-3
MP,EX,1,2636,	! tonne s^-2 mm^-1
MP,NUXY,1,0.33,
MP,UVID,1,388ae073-af24-4023-b754-590e123e42f4

/wb,mat,end                !  done sending materials
!************************* Model Summary ********************
!SYS\Solid,	PLA,	matid,	1
!************************* End Model Summary ********************
! get the diagonal of the bounding box. Needed later for other things
*get,_xmin,node,,mnloc,x
*get,_ymin,node,,mnloc,y
*get,_zmin,node,,mnloc,z
*get,_xmax,node,,mxloc,x
*get,_ymax,node,,mxloc,y
*get,_zmax,node,,mxloc,z
_ASMDIAG=(_xmax-_xmin)*(_xmax-_xmin)+(_ymax-_ymin)*(_ymax-_ymin)+(_zmax-_zmin)*(_zmax-_zmin)
_ASMDIAG=SQRT(_ASMDIAG)
/wb,contact,start          !  starting to send contact
/wb,contact,end            !  done creating contacts
/com,*********** Send Named Selection as Node Component ***********
CMBLOCK,GROUP1  ,NODE,      202
(8i10)
         1         9        11        12        13        14        16        18
        19        20        21        22       232       233       234       235
       236       237       238       239       240       241       242       950
       951       952       953       954       955       956       957       958
       959       960       961       962       963      1176      1177      1178
      1179      1180      1181      1684      1685      1686      1687      1688
      1689      1690      1691      1692      1693      1694      1695      1696
      1697      1698      1699      1700      1701      1702      2359      2360
      2428      2429      2439      2440      2441      2442      2449      2450
      2451      2456      2457      2458      2463      2464      2465      2479
      2480      2490      2491      2497      2498      2501      2508      2509
      2512      2518      2519      2521      2522      2529      2530      2535
      2536      4057      4058      4061      4062      4064      4067      4068
      4070      4072      4073      4075      4079      4080      4082      4083
      4084      4085      4087      4090      4092      4093      4095      4096
      4098      4099      4100      4103      4104      4105      4109      4110
      4111      4115      4116      4117      4119      4120      8418      8419
      8424      8425      8429      8433      8434      8435      8441      8442
      8447      8449      8455      8459      8467      8468      8474      8475
      8480      8485      8489      8496      8497      9667      9669      9672
! ... 6 like lines cut
/golist
/wb,load,start             !  starting to send loads
/com,*********** Fixed Supports ***********
CMBLOCK,_FIXEDSU,NODE,      552
(8i10)
       489       490       491       492       493       494       495       496
       497       498       499       500       501       502       503       504
       505       506       507       508       509       510       511       512
       513       514       515       516       517       518       519       520
       521       522       523       524       525       526       527       528
       529       530       531       532       533       534       535       536
       537       538       539       540       541       542       543       544
       778       779       780       781       782       783       784       785
       786       787       788       789       790       791       792       793
       794       795       796       797       798       799       800       801
       855       856       857       858       859       860       861       862
       863       864       865       866       867       868       869       870
       871       872       873       874       875       876       877       878
       879       880       881       882       883       884       885       886
       887       888       889       890       931       932       933       934
       935       936       937       938       939       940       941       942
      1721      1722      1723      1724      1725      1726      1727      1728
      1729      1769      1770      1771      1772      1773      1774      1775
      1776      1777      1778      1779      1780      1781      1782      1783
      1784      1785      1786      1787      1837      1838      1839      1840
! ... 49 like lines cut

cmsel,s,_FIXEDSU
d,all,all
nsel,all
/gst,on,on
fini
*get,_numnode,node,0,count
*get,_numelem,elem,0,count
*get, _MAXELEMNUM, elem, 0, NUM, MAX
*get, _MAXNODENUM, node, 0, NUM, MAX
*get, _MAXELEMTYPE, etyp, 0, NUM, MAX
*get, _MAXREALCONST, rcon, 0, NUM, MAX
/go
/wb,load,end               !  done creating loads
/com,--- Number of total nodes = %_numnode%
/com,--- Number of contact elements = 0
/com,--- Number of spring elements = 0
/com,--- Number of bearing elements = 0
/com,--- Number of solid elements = 6967
/com,--- Number of condensed parts = 0
/com,--- Number of total elements = %_numelem%
*get,_wallbsol,active,,time,wall
/com,****************************************************************************
/com,*************************    SOLUTION       ********************************
/com,****************************************************************************
/solu
antype,0                   ! static analysis
_thickRatio=  1     ! Ratio of thick parts in the model
eqsl,pcg,1e-8,,,,,,1
cntr,print,1               ! print out contact info and also make no initial contact an error
cncheck,dmp		!	Enable program controlled contact splitting for distributed memory parallel run
dmpoption,emat,no             ! Don't combine emat file for DANSYS
dmpoption,esav,no             ! Don't combine esav file for DANSYS
nldiag,cont,iter           ! print out contact info each equilibrium iteration
rescontrol,,none                 ! Do not keep any restart files
/com,****************************************************
/com,******************* SOLVE FOR LS 1 OF 1 ****************
acel,0.,-98000.,0.
/nopr
/gopr
nsub,1,1,1
time,1.
outres,erase
outres,all,none
outres,nsol,all,
outres,rsol,all
outres,eangl,all
outres,etmp,all
outres,veng,all
outres,strs,all,
outres,epel,all,
outres,eppl,all,
outres,cont,all,
! *********** WB SOLVE COMMAND ***********
! check interactive state
*get,ANSINTER_,active,,int
*if,ANSINTER_,ne,0,then
/eof
*endif
solve
/com *************** Write FE CONNECTORS ********* 
CEWRITE,file,ce,,INTE
/com,****************************************************
/com,*************** FINISHED SOLVE FOR LS 1 *************
*get,_wallasol,active,,time,wall
/nopr
*get,_numnode,node,0,count
*get,_numelem,elem,0,count
*get, _MAXELEMNUM, elem, 0, NUM, MAX
*get, _MAXNODENUM, node, 0, NUM, MAX,,,INTERNAL
*get, _MAXELEMTYPE, etyp, 0, NUM, MAX
*get, _MAXREALCONST, rcon, 0, NUM, MAX
*get,_NSOLTHREADS,active,0,ntfs
*get,_NSOLPROCESSES,active,0,npfs
/gopr
*get,_PCGITER,active,,solu,cgiter
/post1
xmlo,ENCODING,ISO-8859-1
xmlo,parm
/xml,parm,xml
fini
/gopr
*get,_walldone,active,,time,wall
_preptime=(_wallbsol-_wallstrt)*3600
_solvtime=(_wallasol-_wallbsol)*3600
_posttime=(_walldone-_wallasol)*3600
_totaltim=(_walldone-_wallstrt)*3600
*get,_dlbratio,active,0,solu,dlbr
*get,_combtime,active,0,solu,comb
*get,_ssmode,active,0,solu,ssmm
*get,_ndofs,active,0,solu,ndof
*get,_sol_end_time,active,0,set,time
*if,_sol_end_time,eq,1.000000,then
/fclean				!clean distributed files
*endif
/com,--- Total number of nodes = %_numnode%
/com,--- Total number of elements = %_numelem%
/com,--- Element load balance ratio = %_dlbratio%
/com,--- Time to combine distributed files = %_combtime%
/com,--- Sparse memory mode = %_ssmode%
/com,--- Number of DOF = %_ndofs%
/wb,file,end               ! done with WB generated input
