/batch
/config,noeldb,1     ! force off writing results to database
*get,_wallstrt,active,,time,wall
! ANSYS input file written by Workbench version 2024 R1
! File used for geometry attach: C:\Users\Administrator\Desktop\Thesis\root\ansys_files\design_files\dp0\SYS\DM\SYS.scdoc
/title,design--Static Structural (A5)
*DIM,_wb_ProjectScratch_dir,string,248
_wb_ProjectScratch_dir(1) = 'C:\Users\Administrator\Desktop\Thesis\root\ansys_files\_ProjectScratch\ScrF550\'
*DIM,_wb_SolverFiles_dir,string,248
_wb_SolverFiles_dir(1) = 'C:\Users\Administrator\Desktop\Thesis\root\ansys_files\design_files\dp0\SYS\MECH\'
*DIM,_wb_userfiles_dir,string,248
_wb_userfiles_dir(1) = 'C:\Users\Administrator\Desktop\Thesis\root\ansys_files\design_files\user_files\'
/com,--- Data in consistent NMM units. See Solving Units in the help system for more information.
/units,MPA
/nopr
/wb,file,start              !  signify a WB generated input file
/prep7
! Turn off shape checking because checks already performed inside WB mesher.
! See help system for more information.
SHPP,OFF,,NOWARN
/nolist
etcon,set             ! allow ANSYS to choose best KEYOP's for 180x elements, resets any applicable keyopt to MAPDL defaults
/com,*********** Nodes for the whole assembly ***********
nblock,3,,10456
(1i9,3e20.9e3)
        1     3.000000000E+00    -1.100000000E+01     5.000000000E+00
        2    -3.000000000E+00    -1.100000000E+01     5.000000000E+00
        3     0.000000000E+00    -1.100000000E+01     5.000000000E+00
        4    -3.000000000E+00     1.100000000E+01     5.000000000E+00
        5    -3.000000000E+00    -7.333333333E+00     5.000000000E+00
        6    -3.000000000E+00    -3.666666667E+00     5.000000000E+00
        7    -3.000000000E+00    -8.673617380E-16     5.000000000E+00
        8    -3.000000000E+00     3.666666667E+00     5.000000000E+00
        9    -3.000000000E+00     7.333333333E+00     5.000000000E+00
       10     3.000000000E+00     1.100000000E+01     5.000000000E+00
       11     0.000000000E+00     1.100000000E+01     5.000000000E+00
       12     3.000000000E+00     7.333333333E+00     5.000000000E+00
       13     3.000000000E+00     3.666666667E+00     5.000000000E+00
       14     3.000000000E+00     8.673617380E-16     5.000000000E+00
       15     3.000000000E+00    -3.666666667E+00     5.000000000E+00
       16     3.000000000E+00    -7.333333333E+00     5.000000000E+00
       17     6.000000000E+00    -1.300000000E+01     5.000000000E+00
       18     6.000000000E+00     1.300000000E+01     5.000000000E+00
       19     6.000000000E+00    -9.285714286E+00     5.000000000E+00
       20     6.000000000E+00    -5.571428571E+00     5.000000000E+00
! ... 9487 like lines cut
/wb,elem,start            !  set before creation of elements
/com,*********** Elements for Body 1 "SYS\Solid" ***********
et,1,187
eblock,19,solid,,4516
(19i9)
        1        1        1        1        0        0        0        0       10        0        1      793     1187     1714     1699     6156     7999     6161     6160
     7998     9499
        1        1        1        1        0        0        0        0       10        0        2      793     1187     1188     1714     6156     7991     6157     6161
     7999     8004
        1        1        1        1        0        0        0        0       10        0        3      793     1714     1315     1699     6161     8587     6158     6160
     9499     8586
        1        1        1        1        0        0        0        0       10        0        4       58      793     1714     1315     2102     6161     2108     2104
     6158     8587
        1        1        1        1        0        0        0        0       10        0        5     1315     1714     1650     1699     8587     9474     8584     8586
     9499     9473
        1        1        1        1        0        0        0        0       10        0        6     1315     1714     1609     1650     8587     9386     8582     8584
     9474     9384
        1        1        1        1        0        0        0        0       10        0        7     1187     1650     1714     1699     7996     9474     7999     7998
     9473     9499
        1        1        1        1        0        0        0        0       10        0        8     1187     1188     1714     1650     7991     8004     7999     7996
     8002     9474
        1        1        1        1        0        0        0        0       10        0        9       58     1188     1714      793     2103     8004     2108     2102
     6157     6161
        1        1        1        1        0        0        0        0       10        0       10       58     1714     1609     1315     2108     9386     2107     2104
     8587     8582
! ... 9013 like lines cut
!Material Id = {CC69CA13-8414-4764-8313-40191247FA0A}
/wb,elem,end               !  done creating elements
/com,*********** Send User Defined Coordinate System(s) ***********
csys,0
toffst,273.15,  ! Temperature offset from absolute zero
/com,*********** Set Reference Temperature ***********
tref,22.
/wb,mat,start              !  starting to send materials
/com,*********** Send Materials ***********
MP,DENS,1,1.24e-09,	! tonne mm^-3
MP,EX,1,2636,	! tonne s^-2 mm^-1
MP,NUXY,1,0.33,
MP,UVID,1,388ae073-af24-4023-b754-590e123e42f4

/wb,mat,end                !  done sending materials
!************************* Model Summary ********************
!SYS\Solid,	PLA,	matid,	1
!************************* End Model Summary ********************
! get the diagonal of the bounding box. Needed later for other things
*get,_xmin,node,,mnloc,x
*get,_ymin,node,,mnloc,y
*get,_zmin,node,,mnloc,z
*get,_xmax,node,,mxloc,x
*get,_ymax,node,,mxloc,y
*get,_zmax,node,,mxloc,z
_ASMDIAG=(_xmax-_xmin)*(_xmax-_xmin)+(_ymax-_ymin)*(_ymax-_ymin)+(_zmax-_zmin)*(_zmax-_zmin)
_ASMDIAG=SQRT(_ASMDIAG)
/wb,contact,start          !  starting to send contact
/wb,contact,end            !  done creating contacts
/com,*********** Send Named Selection as Node Component ***********
CMBLOCK,GROUP1  ,NODE,      117
(8i10)
       139       158       160       161       162       163       317       321
       323       325       413       414       415       416       417       418
       419       420       421       422       848       849       850       851
       911       912       913       914       915       916       917       918
      1065      1066      1067      1068      1424      1425      1426      2593
      2594      2713      2714      2723      2724      2727      2729      2732
      2733      2736      2739      2740      2742      2745      3586      3587
      3611      3614      3615      3618      3630      3631      3640      3641
      3642      3643      4241      4242      4243      4244      4246      4248
      4249      4251      4254      4255      4257      4260      4264      4265
      4266      4271      4272      4273      4277      4278      4280      4283
      4284      4285      4288      6401      6402      6405      6407      6408
      6412      6413      6415      6418      6419      6649      6660      6662
      6664      6669      6670      6676      6680      6681      6690      6691
      6695      7491      7499      8878      8884
/golist
/wb,load,start             !  starting to send loads
/com,*********** Fixed Supports ***********
CMBLOCK,_FIXEDSU,NODE,      364
(8i10)
       259       260       261       262       263       264       265       266
       267       268       269       270       271       272       273       274
       275       276       277       278       279       280       281       282
       283       284       285       286       287       288       289       290
       291       292       293       294       295       296       297       298
       299       300       301       302       303       304       305       306
       307       308       309       310       311       312       313       314
       315       316       623       624       625       626       627       628
       629       630       631       632       633       634       635       636
       637       638       639       640       641       642       643       644
       645       646       647       648       649       650       651       652
       653       654       655       656       657       658       659       660
       661       662       663       664       665       666       667       668
       669       670       671       672       673       674       675       676
       677       678       679       680       747       748       753       754
      3284      3285      3286      3288      3289      3290      3292      3294
      3296      3298      3299      3300      3303      3304      3305      3309
      3310      3311      3319      3320      3321      3324      3325      3326
      3329      3330      3331      3334      3335      3336      3341      3342
      3343      3348      3349      3350      3355      3356      3357      3361
! ... 26 like lines cut
cmsel,s,_FIXEDSU
d,all,all
nsel,all
/gst,on,on
fini
*get,_numnode,node,0,count
*get,_numelem,elem,0,count
*get, _MAXELEMNUM, elem, 0, NUM, MAX
*get, _MAXNODENUM, node, 0, NUM, MAX
*get, _MAXELEMTYPE, etyp, 0, NUM, MAX
*get, _MAXREALCONST, rcon, 0, NUM, MAX
/go
/wb,load,end               !  done creating loads
/com,--- Number of total nodes = %_numnode%
/com,--- Number of contact elements = 0
/com,--- Number of spring elements = 0
/com,--- Number of bearing elements = 0
/com,--- Number of solid elements = 4516
/com,--- Number of condensed parts = 0
/com,--- Number of total elements = %_numelem%
*get,_wallbsol,active,,time,wall
/com,****************************************************************************
/com,*************************    SOLUTION       ********************************
/com,****************************************************************************
/solu
antype,0                   ! static analysis
_thickRatio=  0     ! Ratio of thick parts in the model
eqsl,sparse,,,,,1
cntr,print,1               ! print out contact info and also make no initial contact an error
cncheck,dmp		!	Enable program controlled contact splitting for distributed memory parallel run
dmpoption,emat,no             ! Don't combine emat file for DANSYS
dmpoption,esav,no             ! Don't combine esav file for DANSYS
nldiag,cont,iter           ! print out contact info each equilibrium iteration
rescontrol,,none                 ! Do not keep any restart files
/com,****************************************************
/com,******************* SOLVE FOR LS 1 OF 1 ****************
acel,0.,-98000.,0.
/nopr
/gopr
nsub,1,1,1
time,1.
outres,erase
outres,all,none
outres,nsol,all,
outres,rsol,all
outres,eangl,all
outres,etmp,all
outres,veng,all
outres,strs,all,
outres,epel,all,
outres,eppl,all,
outres,cont,all,
! *********** WB SOLVE COMMAND ***********
! check interactive state
*get,ANSINTER_,active,,int
*if,ANSINTER_,ne,0,then
/eof
*endif
solve
/com *************** Write FE CONNECTORS ********* 
CEWRITE,file,ce,,INTE
/com,****************************************************
/com,*************** FINISHED SOLVE FOR LS 1 *************
*get,_wallasol,active,,time,wall
/nopr
*get,_numnode,node,0,count
*get,_numelem,elem,0,count
*get, _MAXELEMNUM, elem, 0, NUM, MAX
*get, _MAXNODENUM, node, 0, NUM, MAX,,,INTERNAL
*get, _MAXELEMTYPE, etyp, 0, NUM, MAX
*get, _MAXREALCONST, rcon, 0, NUM, MAX
*get,_NSOLTHREADS,active,0,ntfs
*get,_NSOLPROCESSES,active,0,npfs
/gopr
/post1
xmlo,ENCODING,ISO-8859-1
xmlo,parm
/xml,parm,xml
fini
/gopr
*get,_walldone,active,,time,wall
_preptime=(_wallbsol-_wallstrt)*3600
_solvtime=(_wallasol-_wallbsol)*3600
_posttime=(_walldone-_wallasol)*3600
_totaltim=(_walldone-_wallstrt)*3600
*get,_dlbratio,active,0,solu,dlbr
*get,_combtime,active,0,solu,comb
*get,_ssmode,active,0,solu,ssmm
*get,_ndofs,active,0,solu,ndof
*get,_sol_end_time,active,0,set,time
*if,_sol_end_time,eq,1.000000,then
/fclean				!clean distributed files
*endif
/com,--- Total number of nodes = %_numnode%
/com,--- Total number of elements = %_numelem%
/com,--- Element load balance ratio = %_dlbratio%
/com,--- Time to combine distributed files = %_combtime%
/com,--- Sparse memory mode = %_ssmode%
/com,--- Number of DOF = %_ndofs%
/wb,file,end               ! done with WB generated input
